Version 4
SHEET 1 880 956
WIRE 32 -704 -96 -704
WIRE 208 -688 128 -688
WIRE 32 -656 -96 -656
WIRE 80 -544 80 -752
WIRE 32 -496 -96 -496
WIRE 208 -480 128 -480
WIRE 32 -448 -96 -448
WIRE 96 -416 96 -624
WIRE 80 -368 80 -544
WIRE 32 -320 -96 -320
WIRE 208 -304 128 -304
WIRE 32 -272 -96 -272
WIRE 96 -240 96 -416
WIRE 80 -176 80 -368
WIRE 32 -128 -96 -128
WIRE 208 -112 128 -112
WIRE 32 -80 -96 -80
WIRE 96 -48 96 -240
WIRE 80 16 80 -176
WIRE 32 64 -96 64
WIRE 208 80 128 80
WIRE 32 112 -96 112
WIRE 96 144 96 -48
WIRE -288 192 -368 192
WIRE 80 208 80 16
WIRE -288 224 -368 224
WIRE 32 256 -96 256
WIRE 208 272 128 272
WIRE 32 304 -96 304
WIRE 96 336 96 144
WIRE 80 432 80 208
WIRE 32 480 -96 480
WIRE 208 496 128 496
WIRE 32 528 -96 528
WIRE 96 560 96 336
WIRE 80 640 80 432
WIRE 32 688 -96 688
WIRE 208 704 128 704
WIRE 32 736 -96 736
WIRE 96 768 96 560
WIRE 96 864 96 768
FLAG 96 864 sel
IOPIN 96 864 In
FLAG -368 192 A[7:0]
IOPIN -368 192 In
FLAG -368 224 B[4:0]
IOPIN -368 224 In
FLAG 208 -688 s[0]
IOPIN 208 -688 Out
FLAG 208 -480 s[1]
IOPIN 208 -480 Out
FLAG 208 -304 s[2]
IOPIN 208 -304 Out
FLAG 208 -112 s[3]
IOPIN 208 -112 Out
FLAG 208 80 s[4]
IOPIN 208 80 Out
FLAG 208 272 s[5]
IOPIN 208 272 Out
FLAG 208 496 s[6]
IOPIN 208 496 Out
FLAG 208 704 s[7]
IOPIN 208 704 Out
FLAG -96 -704 A[0]
FLAG -96 -496 A[1]
FLAG -96 -320 A[2]
FLAG -96 -128 A[3]
FLAG -96 64 A[4]
FLAG -96 256 A[5]
FLAG -96 480 A[6]
FLAG -96 688 A[7]
FLAG -96 -656 B[0]
FLAG -96 -448 B[1]
FLAG -96 -272 B[2]
FLAG -96 -80 B[3]
FLAG -96 112 B[4]
FLAG -96 304 0
FLAG -96 528 0
FLAG -96 736 0
SYMBOL s_2x1_mux 80 64 R0
SYMATTR InstName X1
SYMBOL s_2x1_mux 80 256 R0
SYMATTR InstName X2
SYMBOL s_2x1_mux 80 480 R0
SYMATTR InstName X3
SYMBOL s_2x1_mux 80 688 R0
SYMATTR InstName X4
SYMBOL s_2x1_mux 80 -128 R0
SYMATTR InstName X5
SYMBOL s_2x1_mux 80 -320 R0
SYMATTR InstName X6
SYMBOL s_2x1_mux 80 -496 R0
SYMATTR InstName X7
SYMBOL s_2x1_mux 80 -704 R0
SYMATTR InstName X8
