Version 4
SHEET 1 880 680
WIRE 160 80 -272 80
WIRE 48 128 -208 128
WIRE 320 144 272 144
WIRE -272 160 -272 80
WIRE -208 160 -208 128
WIRE 48 160 -128 160
WIRE 320 176 272 176
FLAG -128 240 0
FLAG -208 240 0
FLAG -272 240 0
SYMBOL voltage -128 144 R0
WINDOW 123 0 0 Left 0
WINDOW 39 0 0 Left 0
SYMATTR InstName V1
SYMATTR Value 0
SYMBOL voltage -208 144 R0
SYMATTR InstName V2
SYMATTR Value 0
SYMBOL voltage -272 144 R0
SYMATTR InstName V3
SYMATTR Value 5
SYMBOL s_half_adder 160 160 R0
WINDOW 0 0 0 Left 0
SYMATTR InstName X1
TEXT 0 280 Left 2 !.tran 10n
