Version 4
SHEET 1 880 680
WIRE 80 -160 80 -208
WIRE 336 -160 80 -160
WIRE 32 -112 -112 -112
WIRE 32 -64 -112 -64
WIRE 336 -64 336 -160
WIRE 128 -16 128 -96
WIRE 288 -16 128 -16
WIRE 288 32 128 32
WIRE 80 48 80 -160
WIRE 32 96 -112 96
WIRE 128 112 128 32
WIRE 32 144 -112 144
WIRE 96 176 96 -32
WIRE 96 272 96 176
WIRE 352 272 352 64
FLAG 96 272 sel[0]
IOPIN 96 272 In
FLAG 352 272 sel[1]
IOPIN 352 272 In
FLAG 80 -208 Vdd
IOPIN 80 -208 In
FLAG -112 -112 R0[0:7]
IOPIN -112 -112 In
FLAG -112 -64 R1[0:7]
IOPIN -112 -64 In
FLAG -112 96 R2[0:7]
IOPIN -112 96 In
FLAG -112 144 R3[0:7]
IOPIN -112 144 In
SYMBOL s_2x1_8bit_mux 80 96 R0
SYMATTR InstName X1
SYMBOL s_2x1_8bit_mux 80 -112 R0
SYMATTR InstName X2
SYMBOL s_2x1_8bit_mux 336 -16 R0
SYMATTR InstName X3
