Version 4
SHEET 1 880 1188
WIRE -32 -48 -32 -128
WIRE 0 -48 0 -112
WIRE 16 -16 -48 -16
WIRE 16 16 16 -16
WIRE -528 48 -688 48
WIRE 16 48 16 16
WIRE 160 48 16 48
WIRE 128 80 -128 80
WIRE 336 80 224 80
WIRE -16 144 -16 16
WIRE 160 144 -16 144
WIRE 16 192 16 48
WIRE 160 192 16 192
WIRE 128 224 -128 224
WIRE 336 224 224 224
WIRE -16 288 -16 144
WIRE 160 288 -16 288
WIRE 16 336 16 192
WIRE 160 336 16 336
WIRE 128 368 -128 368
WIRE 336 368 224 368
WIRE -16 432 -16 288
WIRE 160 432 -16 432
WIRE 16 480 16 336
WIRE 160 480 16 480
WIRE 128 512 -128 512
WIRE 336 512 224 512
WIRE -16 576 -16 432
WIRE 160 576 -16 576
WIRE 16 608 16 480
WIRE 160 608 16 608
WIRE 128 640 -128 640
WIRE 336 640 224 640
WIRE -16 704 -16 576
WIRE 160 704 -16 704
WIRE 16 752 16 608
WIRE 160 752 16 752
WIRE 128 784 -128 784
WIRE 336 784 224 784
WIRE -16 848 -16 704
WIRE 160 848 -16 848
WIRE 16 896 16 752
WIRE 160 896 16 896
WIRE 128 928 -128 928
WIRE 336 928 224 928
WIRE -16 992 -16 848
WIRE 160 992 -16 992
WIRE 16 1040 16 896
WIRE 160 1040 16 1040
WIRE 128 1072 -128 1072
WIRE 336 1072 224 1072
WIRE -16 1136 -16 992
WIRE 160 1136 -16 1136
WIRE -16 1152 -16 1136
WIRE 16 1184 16 1040
FLAG -32 -128 clk
IOPIN -32 -128 In
FLAG 16 16 Vdd
IOPIN 16 16 In
FLAG 0 -112 WR_EN
IOPIN 0 -112 In
FLAG -528 48 in[7:0]
IOPIN -528 48 In
FLAG -128 80 in[0]
FLAG -128 224 in[1]
FLAG -128 368 in[2]
FLAG -128 512 in[3]
FLAG -128 640 in[4]
FLAG -128 784 in[5]
FLAG -128 928 in[6]
FLAG -128 1072 in[7]
FLAG 336 80 Vout[0]
FLAG 336 224 Vout[1]
FLAG 336 368 Vout[2]
FLAG 336 512 Vout[3]
FLAG 336 640 Vout[4]
FLAG 336 784 Vout[5]
FLAG 336 928 Vout[6]
FLAG 336 1072 Vout[7]
SYMBOL s_d_flip_flop 176 96 R0
SYMATTR InstName X1
SYMBOL s_d_flip_flop 176 240 R0
SYMATTR InstName X2
SYMBOL s_d_flip_flop 176 384 R0
SYMATTR InstName X3
SYMBOL s_d_flip_flop 176 528 R0
SYMATTR InstName X4
SYMBOL s_d_flip_flop 176 656 R0
SYMATTR InstName X5
SYMBOL s_d_flip_flop 176 800 R0
SYMATTR InstName X6
SYMBOL s_d_flip_flop 176 944 R0
SYMATTR InstName X7
SYMBOL s_d_flip_flop 176 1088 R0
SYMATTR InstName X8
SYMBOL s_and -16 0 R270
SYMATTR InstName X9
