Version 4
SHEET 1 2572 1584
WIRE 304 -448 304 -512
WIRE 480 -448 480 -512
WIRE 640 -448 640 -512
WIRE 816 -448 816 -512
WIRE 992 -448 992 -512
WIRE 1168 -448 1168 -512
WIRE 1328 -448 1328 -512
WIRE 1504 -448 1504 -512
WIRE 1680 -448 1680 -512
WIRE 304 -320 304 -368
WIRE 480 -320 480 -368
WIRE 640 -320 640 -368
WIRE 816 -320 816 -368
WIRE 992 -320 992 -368
WIRE 1168 -320 1168 -368
WIRE 1328 -320 1328 -368
WIRE 1504 -320 1504 -368
WIRE 1680 -320 1680 -368
WIRE 2416 -128 2192 -128
WIRE 2432 -64 2208 -64
WIRE 224 -48 48 -48
WIRE 400 -48 224 -48
WIRE 560 -48 400 -48
WIRE 1904 -48 560 -48
WIRE 304 0 304 -320
WIRE 480 0 480 -320
WIRE 640 0 640 -320
WIRE 208 32 208 0
WIRE 384 32 384 0
WIRE 544 32 544 0
WIRE 224 144 48 144
WIRE 400 144 224 144
WIRE 560 144 400 144
WIRE 1904 144 560 144
WIRE 304 192 304 0
WIRE 480 192 480 0
WIRE 640 192 640 0
WIRE 208 224 208 192
WIRE 384 224 384 192
WIRE 544 224 544 192
WIRE 224 336 48 336
WIRE 400 336 224 336
WIRE 560 336 400 336
WIRE 1904 336 560 336
WIRE 304 384 304 192
WIRE 480 384 480 192
WIRE 640 384 640 192
WIRE 208 416 208 384
WIRE 384 416 384 384
WIRE 544 416 544 384
WIRE 224 528 48 528
WIRE 1904 528 224 528
WIRE 304 576 304 384
WIRE 208 608 208 576
WIRE 400 704 48 704
WIRE 912 704 400 704
WIRE 1088 704 912 704
WIRE 1904 704 1088 704
WIRE 480 752 480 384
WIRE 992 752 992 -320
WIRE 1168 752 1168 -320
WIRE 384 784 384 752
WIRE 896 784 896 752
WIRE 1072 784 1072 752
WIRE 736 896 48 896
WIRE 912 896 736 896
WIRE 1088 896 912 896
WIRE 1600 896 1088 896
WIRE 1904 896 1600 896
WIRE 816 944 816 -320
WIRE 992 944 992 752
WIRE 1168 944 1168 752
WIRE 1680 944 1680 -320
WIRE 720 976 720 944
WIRE 896 976 896 944
WIRE 1072 976 1072 944
WIRE 1584 976 1584 944
WIRE 560 1088 48 1088
WIRE 1424 1088 560 1088
WIRE 1904 1088 1424 1088
WIRE 640 1136 640 384
WIRE 1504 1136 1504 -320
WIRE 544 1168 544 1136
WIRE 1408 1168 1408 1136
WIRE 400 1280 48 1280
WIRE 560 1280 400 1280
WIRE 1424 1280 560 1280
WIRE 1600 1280 1424 1280
WIRE 1904 1280 1600 1280
WIRE 304 1328 304 576
WIRE 480 1328 480 752
WIRE 640 1328 640 1136
WIRE 816 1328 816 944
WIRE 992 1328 992 944
WIRE 1168 1328 1168 944
WIRE 1328 1328 1328 -320
WIRE 1504 1328 1504 1136
WIRE 1680 1328 1680 944
WIRE 384 1360 384 1328
WIRE 544 1360 544 1328
WIRE 1408 1360 1408 1328
WIRE 1584 1360 1584 1328
FLAG 304 -512 VDD
IOPIN 304 -512 In
FLAG 480 -512 VDD
FLAG 640 -512 VDD
FLAG 816 -512 VDD
FLAG 992 -512 VDD
FLAG 1168 -512 VDD
FLAG 1328 -512 VDD
FLAG 1504 -512 VDD
FLAG 1680 -512 VDD
FLAG 1904 -48 WL[7]
FLAG 1904 144 WL[6]
FLAG 1904 336 WL[5]
FLAG 1904 528 WL[4]
FLAG 1904 704 WL[3]
FLAG 1904 896 WL[2]
FLAG 1904 1088 WL[1]
FLAG 1904 1280 WL[0]
FLAG 544 1360 0
FLAG 1408 1360 0
FLAG 304 -320 BL[8]
FLAG 480 -320 BL[7]
FLAG 640 -320 BL[6]
FLAG 816 -320 BL[5]
FLAG 992 -320 BL[4]
FLAG 1168 -320 BL[3]
FLAG 1328 -320 BL[2]
FLAG 1504 -320 BL[1]
FLAG 1680 -320 BL[0]
FLAG 384 784 0
FLAG 384 32 0
FLAG 208 608 0
FLAG 544 1168 0
FLAG 1584 1360 0
FLAG 1408 1168 0
FLAG 384 1360 0
FLAG 720 976 0
FLAG 896 976 0
FLAG 1072 976 0
FLAG 208 32 0
FLAG 544 32 0
FLAG 384 224 0
FLAG 208 224 0
FLAG 544 224 0
FLAG 384 416 0
FLAG 208 416 0
FLAG 544 416 0
FLAG 1584 976 0
FLAG 896 784 0
FLAG 1072 784 0
FLAG 2192 -128 WL[7:0]
IOPIN 2192 -128 In
FLAG 2432 -64 BL[8:0]
IOPIN 2432 -64 Out
SYMBOL res 288 -464 R0
SYMATTR InstName R3
SYMATTR Value 40K
SYMBOL res 464 -464 R0
SYMATTR InstName R4
SYMATTR Value 40K
SYMBOL res 624 -464 R0
SYMATTR InstName R5
SYMATTR Value 40K
SYMBOL res 800 -464 R0
SYMATTR InstName R6
SYMATTR Value 40K
SYMBOL res 976 -464 R0
SYMATTR InstName R7
SYMATTR Value 40K
SYMBOL res 1152 -464 R0
SYMATTR InstName R8
SYMATTR Value 40K
SYMBOL res 1312 -464 R0
SYMATTR InstName R9
SYMATTR Value 40K
SYMBOL res 1488 -464 R0
SYMATTR InstName R10
SYMATTR Value 40K
SYMBOL res 1664 -464 R0
SYMATTR InstName R11
SYMATTR Value 40K
SYMBOL nmos 640 1280 R90
SYMATTR InstName M81
SYMATTR Value ROMN  W=10u L=0.5u
SYMBOL nmos 1504 1280 R90
SYMATTR InstName M86
SYMATTR Value ROMN  W=10u L=0.5u
SYMBOL nmos 480 704 R90
SYMATTR InstName M1
SYMATTR Value ROMN  W=10u L=0.5u
SYMBOL nmos 480 -48 R90
SYMATTR InstName M7
SYMATTR Value ROMN  W=10u L=0.5u
SYMBOL nmos 304 528 R90
SYMATTR InstName M10
SYMATTR Value ROMN  W=10u L=0.5u
SYMBOL nmos 640 1088 R90
SYMATTR InstName M5
SYMATTR Value ROMN  W=10u L=0.5u
SYMBOL nmos 1680 1280 R90
SYMATTR InstName M6
SYMATTR Value ROMN  W=10u L=0.5u
SYMBOL nmos 1504 1088 R90
SYMATTR InstName M11
SYMATTR Value ROMN  W=10u L=0.5u
SYMBOL nmos 480 1280 R90
SYMATTR InstName M18
SYMATTR Value ROMN  W=10u L=0.5u
SYMBOL nmos 816 896 R90
SYMATTR InstName M19
SYMATTR Value ROMN  W=10u L=0.5u
SYMBOL nmos 992 896 R90
SYMATTR InstName M20
SYMATTR Value ROMN  W=10u L=0.5u
SYMBOL nmos 1168 896 R90
SYMATTR InstName M21
SYMATTR Value ROMN  W=10u L=0.5u
SYMBOL nmos 304 -48 R90
SYMATTR InstName M2
SYMATTR Value ROMN  W=10u L=0.5u
SYMBOL nmos 640 -48 R90
SYMATTR InstName M12
SYMATTR Value ROMN  W=10u L=0.5u
SYMBOL nmos 480 144 R90
SYMATTR InstName M3
SYMATTR Value ROMN  W=10u L=0.5u
SYMBOL nmos 304 144 R90
SYMATTR InstName M4
SYMATTR Value ROMN  W=10u L=0.5u
SYMBOL nmos 640 144 R90
SYMATTR InstName M13
SYMATTR Value ROMN  W=10u L=0.5u
SYMBOL nmos 480 336 R90
SYMATTR InstName M14
SYMATTR Value ROMN  W=10u L=0.5u
SYMBOL nmos 304 336 R90
SYMATTR InstName M15
SYMATTR Value ROMN  W=10u L=0.5u
SYMBOL nmos 640 336 R90
SYMATTR InstName M16
SYMATTR Value ROMN  W=10u L=0.5u
SYMBOL nmos 1680 896 R90
SYMATTR InstName M17
SYMATTR Value ROMN  W=10u L=0.5u
SYMBOL nmos 992 704 R90
SYMATTR InstName M22
SYMATTR Value ROMN  W=10u L=0.5u
SYMBOL nmos 1168 704 R90
SYMATTR InstName M23
SYMATTR Value ROMN  W=10u L=0.5u
TEXT 1848 -528 Left 2 ;Instr 0:    100111100  (SRAM value: 0011)\nInstr 1:    110111101  (SRAM value: 0101)\nInstr 2:    111000110\nInstr 3:    101100111\nInstr 4:    011111111\nInstr 5:    000111111\nInstr 6:    000111111\nInstr 7:    000111111
TEXT 64 -16 Left 2 ;NO-OP
TEXT 64 168 Left 2 ;NO-OP
TEXT 64 368 Left 2 ;NO-OP
TEXT -136 1304 Left 2 ;LOAD SRAM address 0 to Register 0
TEXT -224 552 Left 2 ;STORE register 2 to SRAM address 1
TEXT -496 464 Left 2 ;END OF PROGRAM: The rest of the instructions above are NO-OPS.
TEXT -136 1120 Left 2 ;LOAD SRAM address 1 to Register 1
TEXT -344 728 Left 2 ;ADD Register 1 to Register 2 and put result in Register 3
TEXT -376 928 Left 2 ;MULT Register 0 and Register 1 and put result in Register 2
TEXT -544 -488 Left 2 !.MODEL ROMN NMOS  (LEVEL=7 TOX=8e-9 U0 = 1300\n+CGSO=3.4E-10 CGDO=3.4E-10 CJ=6.8e-4  CJSW=1.26e-10\n+MJ=0.5 MJSW=0.5 CGBO=5.75E-10 RSH=33.8)\n.MODEL ROMP PMOS  (LEVEL=7 TOX=8e-9  CGDO=5.3752E-11\n+U0= 440    CGSO=5.3752E-11  CGBO=3.3650E-10 CJ=4.8447E-04\n+MJ=0.5027 CJSW=1.6457E-10  MJSW=0.217168 RSH=29.8)
TEXT -800 -304 Left 2 !.ic V(BL8)=5 V(BL7)=0 V(BL6)=0 V(BL5)=5 V(BL4)=5 V(BL3)=5 V(BL2)=5 V(BL1)=0 V(BL0)=0
