Version 4
SHEET 1 880 680
WIRE 128 -224 80 -224
WIRE 224 -224 128 -224
WIRE 0 -176 -160 -176
WIRE 128 -176 0 -176
WIRE -64 -144 -144 -144
WIRE 32 -144 -64 -144
WIRE 128 -144 128 -176
WIRE 176 -144 128 -144
WIRE 176 -128 80 -128
WIRE 224 -128 176 -128
WIRE 176 -32 176 -128
WIRE -64 48 -64 -144
WIRE 128 48 -64 48
WIRE 176 96 176 64
WIRE 0 176 0 -176
WIRE 128 176 0 176
FLAG 176 192 0
FLAG 128 -224 Vdd
FLAG -160 -176 A
FLAG -144 -144 B
SYMBOL nmos 128 -32 R0
SYMATTR InstName M1
SYMBOL nmos 128 96 R0
SYMATTR InstName M2
SYMBOL pmos 32 -224 R0
SYMATTR InstName M3
SYMBOL pmos 176 -224 R0
SYMATTR InstName M4
