Version 4
SHEET 1 880 680
WIRE 304 64 176 64
WIRE -80 144 -128 144
WIRE 128 144 -80 144
WIRE 96 240 -128 240
WIRE 128 240 96 240
WIRE 176 288 176 256
WIRE 176 288 160 288
WIRE 160 432 160 288
WIRE 160 432 64 432
WIRE 240 432 160 432
WIRE -80 512 -80 144
WIRE 16 512 -80 512
WIRE 96 512 96 240
WIRE 192 512 96 512
WIRE 176 528 64 528
WIRE 240 528 176 528
FLAG 176 528 0
FLAG -128 144 A
FLAG -128 240 B
FLAG 0 0 B
SYMBOL pmos 128 64 R0
SYMATTR InstName M1
SYMBOL pmos 128 160 R0
SYMATTR InstName M2
SYMBOL nmos 16 432 R0
SYMATTR InstName M3
SYMBOL nmos 192 432 R0
SYMATTR InstName M4
