Version 4
SHEET 1 880 680
WIRE 304 64 176 64
WIRE -80 144 -128 144
WIRE 128 144 128 80
WIRE 128 144 -80 144
WIRE 96 240 -128 240
WIRE 128 240 128 176
WIRE 128 240 96 240
WIRE 176 288 176 256
WIRE 176 288 160 288
WIRE 304 288 176 288
WIRE 448 288 368 288
WIRE 160 432 160 288
WIRE 160 432 64 432
WIRE 240 432 160 432
WIRE -80 512 -80 144
WIRE 16 512 -80 512
WIRE 96 512 96 240
WIRE 192 512 96 512
WIRE 176 528 64 528
WIRE 240 528 176 528
FLAG 176 528 0
FLAG -128 144 A
IOPIN -128 144 In
FLAG -128 240 B
IOPIN -128 240 In
FLAG 176 64 Vdd
IOPIN 176 64 In
FLAG 448 288 Vout
IOPIN 448 288 Out
SYMBOL pmos 128 160 M180
SYMATTR InstName M1
SYMATTR Value CMOSP_0.5
SYMBOL pmos 128 256 M180
SYMATTR InstName M2
SYMATTR Value CMOSP_0.5
SYMBOL nmos 16 432 R0
SYMATTR InstName M3
SYMATTR Value CMOSN_0.5
SYMBOL nmos 192 432 R0
SYMATTR InstName M4
SYMATTR Value CMOSN_0.5
SYMBOL Digital\\inv 304 224 R0
WINDOW 3 8 60 Left 2
SYMATTR InstName A1
SYMATTR Value td=10n Vhigh=5
TEXT 368 24 Left 2 !.lib DetailedModel.mod
