Version 4
SHEET 1 880 680
WIRE 416 16 416 -48
WIRE 416 16 224 16
WIRE 192 32 -160 32
WIRE 416 32 416 16
WIRE 304 48 256 48
WIRE 192 64 128 64
WIRE 304 80 304 48
WIRE 368 80 304 80
WIRE -160 112 -160 32
WIRE -64 112 -160 112
WIRE 608 112 496 112
WIRE 224 128 224 16
WIRE 224 128 0 128
WIRE 368 144 304 144
WIRE 0 160 0 128
WIRE 224 160 224 128
WIRE 192 176 128 176
WIRE 304 192 304 144
WIRE 304 192 256 192
WIRE -64 208 -64 112
WIRE 192 208 80 208
FLAG 128 64 B
IOPIN 128 64 In
FLAG 128 176 A
IOPIN 128 176 In
FLAG -160 112 sel
IOPIN -160 112 In
FLAG 608 112 s
IOPIN 608 112 Out
FLAG 416 -48 Vdd
IOPIN 416 -48 In
SYMBOL s_and 240 48 M0
SYMATTR InstName X1
SYMBOL s_and 240 192 M0
SYMATTR InstName X2
SYMBOL s_or 416 112 R0
SYMATTR InstName X3
SYMBOL s_inv 0 208 R0
SYMATTR InstName X4
