Version 4
SHEET 1 880 1352
WIRE 272 -208 224 -208
WIRE 208 -32 208 -240
WIRE 160 16 64 16
WIRE 352 32 256 32
WIRE 160 64 64 64
WIRE 224 96 224 -208
WIRE 208 128 208 -32
WIRE 160 176 64 176
WIRE 352 192 256 192
WIRE 160 224 64 224
WIRE 224 256 224 96
WIRE 208 288 208 128
WIRE 160 336 64 336
WIRE 352 352 256 352
WIRE 160 384 64 384
WIRE 224 416 224 256
WIRE 208 448 208 288
WIRE 160 496 64 496
WIRE 352 512 256 512
WIRE 160 544 64 544
WIRE 224 576 224 416
WIRE 208 624 208 448
WIRE 160 672 64 672
WIRE 352 688 256 688
WIRE 160 720 64 720
WIRE 224 752 224 576
WIRE 208 800 208 624
WIRE 160 848 64 848
WIRE 352 864 256 864
WIRE 160 896 64 896
WIRE 224 928 224 752
WIRE 208 992 208 800
WIRE 160 1040 64 1040
WIRE 352 1056 256 1056
WIRE 160 1088 64 1088
WIRE 224 1120 224 928
WIRE 208 1184 208 992
WIRE 160 1232 64 1232
WIRE 352 1248 256 1248
WIRE 160 1280 64 1280
WIRE 224 1312 224 1120
FLAG 208 -240 Vdd
IOPIN 208 -240 In
FLAG 272 -208 sel
IOPIN 272 -208 In
FLAG 352 32 out[0]
IOPIN 352 32 Out
FLAG 352 192 out[1]
IOPIN 352 192 Out
FLAG 352 352 out[2]
IOPIN 352 352 Out
FLAG 352 512 out[3]
IOPIN 352 512 Out
FLAG 352 688 out[4]
IOPIN 352 688 Out
FLAG 352 864 out[5]
IOPIN 352 864 Out
FLAG 352 1056 out[6]
IOPIN 352 1056 Out
FLAG 352 1248 out[7]
IOPIN 352 1248 Out
FLAG 64 16 A[0]
IOPIN 64 16 In
FLAG 64 176 A[1]
IOPIN 64 176 In
FLAG 64 224 B[1]
IOPIN 64 224 In
FLAG 64 336 A[2]
IOPIN 64 336 In
FLAG 64 384 B[2]
IOPIN 64 384 In
FLAG 64 496 A[3]
IOPIN 64 496 In
FLAG 64 544 B[3]
IOPIN 64 544 In
FLAG 64 672 A[4]
IOPIN 64 672 In
FLAG 64 720 B[4]
IOPIN 64 720 In
FLAG 64 848 A[5]
IOPIN 64 848 In
FLAG 64 896 B[5]
IOPIN 64 896 In
FLAG 64 1040 A[6]
IOPIN 64 1040 In
FLAG 64 1088 B[6]
IOPIN 64 1088 In
FLAG 64 1232 A[7]
IOPIN 64 1232 In
FLAG 64 1280 B[7]
IOPIN 64 1280 In
FLAG 64 64 B[0]
IOPIN 64 64 In
SYMBOL s_2x1_mux 208 16 R0
SYMATTR InstName X1
SYMBOL s_2x1_mux 208 176 R0
SYMATTR InstName X2
SYMBOL s_2x1_mux 208 336 R0
SYMATTR InstName X3
SYMBOL s_2x1_mux 208 496 R0
SYMATTR InstName X4
SYMBOL s_2x1_mux 208 672 R0
SYMATTR InstName X5
SYMBOL s_2x1_mux 208 848 R0
SYMATTR InstName X6
SYMBOL s_2x1_mux 208 1040 R0
SYMATTR InstName X7
SYMBOL s_2x1_mux 208 1232 R0
SYMATTR InstName X8
