Version 4
SHEET 1 880 680
WIRE 208 32 208 -16
WIRE 208 32 160 32
WIRE 224 32 208 32
WIRE 128 48 80 48
WIRE 224 48 224 32
WIRE 128 80 80 80
WIRE 336 80 256 80
WIRE 192 96 80 96
FLAG 336 80 Vout
IOPIN 336 80 Out
FLAG 208 -16 Vdd
IOPIN 208 -16 In
FLAG 80 48 A
IOPIN 80 48 In
FLAG 80 80 B
IOPIN 80 80 In
FLAG 80 96 C
IOPIN 80 96 In
SYMBOL s_and 176 64 M0
SYMATTR InstName X1
SYMBOL s_and 240 80 M0
SYMATTR InstName X2
