Version 4
SHEET 1 1244 744
WIRE -64 -192 -272 -192
WIRE -64 -128 -272 -128
WIRE -64 -64 -272 -64
WIRE 464 -48 304 -48
WIRE 656 -48 464 -48
WIRE 192 0 -32 0
WIRE 480 16 416 16
WIRE 192 32 -32 32
WIRE 720 48 416 48
WIRE 480 144 480 16
WIRE 480 144 128 144
WIRE 656 160 656 -48
WIRE 656 160 304 160
WIRE 192 208 -32 208
WIRE 480 224 416 224
WIRE 192 240 -32 240
WIRE 720 256 416 256
WIRE 128 272 128 144
WIRE 192 272 128 272
WIRE 480 352 480 224
WIRE 480 352 128 352
WIRE 656 384 656 160
WIRE 656 384 304 384
WIRE 192 432 -32 432
WIRE 480 448 416 448
WIRE 192 464 -32 464
WIRE 720 480 416 480
WIRE 128 496 128 352
WIRE 192 496 128 496
WIRE 656 576 656 384
WIRE 656 576 304 576
WIRE 480 592 480 448
WIRE 480 592 128 592
WIRE 192 624 -32 624
WIRE 720 640 416 640
WIRE 192 656 -32 656
WIRE 720 672 416 672
WIRE 128 688 128 592
WIRE 192 688 128 688
FLAG 464 -48 Vdd
IOPIN 464 -48 In
FLAG 720 48 s[0]
FLAG 720 256 s[1]
FLAG 720 480 s[2]
FLAG 720 672 s[3]
FLAG -32 0 A[0]
FLAG -32 208 A[1]
FLAG -32 432 A[2]
FLAG -32 624 A[3]
FLAG -32 240 B[1]
FLAG -32 32 B[0]
FLAG -32 464 B[2]
FLAG -32 656 B[3]
FLAG 720 640 s[4]
FLAG 192 64 0
FLAG -64 -64 s[4:0]
IOPIN -64 -64 Out
FLAG -64 -128 B[3:0]
IOPIN -64 -128 In
FLAG -64 -192 A[3:0]
IOPIN -64 -192 In
SYMBOL s_full_adder 304 240 R0
SYMATTR InstName X2
SYMBOL s_full_adder 304 464 R0
SYMATTR InstName X3
SYMBOL s_full_adder 304 656 R0
SYMATTR InstName X4
SYMBOL s_full_adder 304 32 R0
SYMATTR InstName X1
