Version 4
SHEET 1 880 796
WIRE 176 96 176 48
WIRE 176 96 48 96
WIRE 336 96 336 48
WIRE 336 96 208 96
WIRE 496 96 496 48
WIRE 496 96 368 96
WIRE 656 96 656 48
WIRE 656 96 544 96
WIRE 144 160 16 160
WIRE 304 160 144 160
WIRE 464 160 304 160
WIRE 624 160 464 160
WIRE 144 208 144 160
WIRE 176 208 176 96
WIRE 304 208 304 160
WIRE 336 208 336 96
WIRE 464 208 464 160
WIRE 496 208 496 96
WIRE 624 208 624 160
WIRE 656 208 656 96
WIRE -336 304 -336 160
WIRE -64 304 -336 304
WIRE 96 304 -64 304
WIRE 256 304 96 304
WIRE 416 304 256 304
WIRE -64 352 -64 304
WIRE 48 352 48 96
WIRE 48 352 -32 352
WIRE 96 352 96 304
WIRE 208 352 208 96
WIRE 208 352 128 352
WIRE 256 352 256 304
WIRE 368 352 368 96
WIRE 368 352 288 352
WIRE 416 352 416 304
WIRE 544 352 544 96
WIRE 544 352 448 352
WIRE -48 512 -48 416
WIRE -32 512 -48 512
WIRE 48 512 32 512
WIRE 112 512 112 416
WIRE 128 512 112 512
WIRE 160 512 160 272
WIRE 208 512 192 512
WIRE 272 512 272 416
WIRE 288 512 272 512
WIRE 320 512 320 272
WIRE 368 512 352 512
WIRE 432 512 432 416
WIRE 448 512 432 512
WIRE 480 512 480 272
WIRE 48 736 48 512
WIRE 144 736 48 736
WIRE 208 736 208 512
WIRE 304 736 208 736
WIRE 368 736 368 512
WIRE 464 736 368 736
FLAG 416 -128 Vdd
IOPIN 416 -128 In
FLAG 656 48 B[0]
IOPIN 656 48 In
FLAG 496 48 B[1]
IOPIN 496 48 In
FLAG 336 48 B[2]
IOPIN 336 48 In
FLAG 176 48 B[3]
IOPIN 176 48 In
FLAG 512 512 0
FLAG 0 512 0
SYMBOL s_and 160 256 R270
SYMATTR InstName X1
SYMBOL s_and 320 256 R270
SYMATTR InstName X2
SYMBOL s_and 480 256 R270
SYMATTR InstName X3
SYMBOL s_and 640 256 R270
SYMATTR InstName X4
SYMBOL s_and 432 400 R270
SYMATTR InstName X5
SYMBOL s_and 272 400 R270
SYMATTR InstName X6
SYMBOL s_and 112 400 R270
SYMATTR InstName X7
SYMBOL s_and -48 400 R270
SYMATTR InstName X8
SYMBOL s_full_adder 480 624 M90
SYMATTR InstName X9
SYMBOL s_full_adder 320 624 M90
SYMATTR InstName X10
SYMBOL s_full_adder 160 624 M90
SYMATTR InstName X11
SYMBOL s_full_adder 0 624 M90
SYMATTR InstName X12
