Version 4
SHEET 1 880 1160
WIRE -64 -160 -240 -160
WIRE 256 -16 -208 -16
WIRE 144 64 -80 64
WIRE 592 64 368 64
WIRE 256 240 -208 240
WIRE 144 320 -80 320
WIRE 608 320 368 320
WIRE 224 400 224 144
WIRE 288 400 288 144
WIRE 256 512 -208 512
WIRE 144 592 -80 592
WIRE 592 592 368 592
WIRE 224 672 224 400
WIRE 288 672 288 400
WIRE 256 800 -208 800
WIRE 144 880 -80 880
WIRE 592 880 368 880
WIRE 224 960 224 672
WIRE 288 960 288 672
WIRE 288 1056 288 960
FLAG -240 -160 WR_EN[0:3]
IOPIN -240 -160 In
FLAG -80 64 r0[0:7]
IOPIN -80 64 In
FLAG -80 320 r1[0:7]
IOPIN -80 320 In
FLAG -80 592 r2[0:7]
IOPIN -80 592 In
FLAG -80 880 r3[0:7]
IOPIN -80 880 In
FLAG -208 -16 WR_EN[0]
FLAG -208 240 WR_EN[1]
FLAG -208 512 WR_EN[2]
FLAG -208 800 WR_EN[3]
FLAG 592 64 r0_out[0:7]
IOPIN 592 64 Out
FLAG 608 320 r1_out[0:7]
IOPIN 608 320 Out
FLAG 592 592 r2_out[0:7]
IOPIN 592 592 Out
FLAG 592 880 r3_out[0:7]
IOPIN 592 880 Out
FLAG 224 960 clk
IOPIN 224 960 In
FLAG 288 1056 Vdd
IOPIN 288 1056 In
SYMBOL s_8bit_reg 256 64 R0
SYMATTR InstName X1
SYMBOL s_8bit_reg 256 320 R0
SYMATTR InstName X2
SYMBOL s_8bit_reg 256 592 R0
SYMATTR InstName X3
SYMBOL s_8bit_reg 256 880 R0
SYMATTR InstName X4
