Version 4
SHEET 1 880 680
WIRE 144 112 144 32
WIRE 288 112 144 112
WIRE 80 160 -48 160
WIRE 464 160 368 160
FLAG -48 160 Vin
IOPIN -48 160 In
FLAG 144 32 Vdd
IOPIN 144 32 In
FLAG 464 160 Vout
IOPIN 464 160 Out
SYMBOL s_inv 144 160 R0
SYMATTR InstName X1
SYMBOL s_inv 288 160 R0
SYMATTR InstName X2
