Version 4
SHEET 1 880 680
WIRE 160 80 48 80
WIRE 368 80 160 80
WIRE 304 128 224 128
FLAG 48 80 Vdd
IOPIN 48 80 In
FLAG 96 128 Vin
IOPIN 96 128 In
FLAG 432 128 Vout
IOPIN 432 128 Out
SYMBOL s_inv_slow 160 128 R0
SYMATTR InstName X1
SYMBOL s_inv_slow 368 128 R0
SYMATTR InstName X2
