Version 4
SHEET 1 1464 680
WIRE 144 -192 -128 -192
WIRE 320 -192 144 -192
WIRE 368 -192 320 -192
WIRE 432 -192 368 -192
WIRE 688 -192 432 -192
WIRE 1056 -192 688 -192
WIRE -128 -144 -128 -192
WIRE 320 -112 320 -192
WIRE 96 -96 -64 -96
WIRE 288 -96 96 -96
WIRE 432 -96 432 -192
WIRE 1056 -96 1056 -192
WIRE 400 -80 352 -80
WIRE 288 -64 208 -64
WIRE 656 -64 464 -64
WIRE 688 -64 688 -192
WIRE 96 -48 96 -96
WIRE 656 -48 656 -64
WIRE 768 -32 720 -32
WIRE 848 -32 768 -32
WIRE 656 0 656 -16
WIRE 752 0 656 0
WIRE 1056 0 1056 -96
WIRE 144 16 144 -192
WIRE 176 16 176 -240
WIRE 208 16 208 -64
WIRE 208 16 176 16
WIRE 256 16 208 16
WIRE 400 16 400 -48
WIRE 400 16 368 16
WIRE 768 16 768 -32
WIRE 768 16 656 16
WIRE 928 16 928 -80
WIRE 1056 16 1056 0
WIRE 1056 16 928 16
WIRE 688 32 688 -64
WIRE 656 48 656 16
WIRE 432 64 432 -96
WIRE 752 64 752 0
WIRE 752 64 720 64
WIRE 848 64 752 64
WIRE 320 80 320 -112
WIRE 400 80 400 16
WIRE 208 96 208 16
WIRE 288 96 208 96
WIRE 656 96 656 80
WIRE 656 96 464 96
WIRE 400 112 352 112
WIRE 96 128 96 96
WIRE 288 128 96 128
WIRE 368 160 368 16
WIRE 656 160 368 160
WIRE 320 224 320 80
WIRE 528 224 320 224
WIRE 256 272 256 16
WIRE 448 272 384 272
WIRE 656 272 656 160
WIRE 656 272 592 272
FLAG 176 -240 clk
IOPIN 176 -240 In
FLAG -208 -96 D
IOPIN -208 -96 In
FLAG 1168 -32 Q
IOPIN 1168 -32 Out
FLAG 1168 64 Qbar
IOPIN 1168 64 Out
FLAG 368 -192 Vdd
IOPIN 368 -192 In
SYMBOL s_inv 96 16 R90
SYMATTR InstName X1
SYMBOL s_nand 448 -64 M0
SYMATTR InstName X2
SYMBOL s_nand 448 96 M0
SYMATTR InstName X3
SYMBOL s_nand 704 -32 M0
SYMATTR InstName X4
SYMBOL s_nand 704 64 M0
SYMATTR InstName X5
SYMBOL s_inv_slow 320 272 R0
SYMATTR InstName X8
SYMBOL s_and 336 -80 M0
SYMATTR InstName X6
SYMBOL s_and 336 112 M0
SYMATTR InstName X7
SYMBOL s_buf_slow 928 -32 R0
SYMATTR InstName X10
SYMBOL s_buf_slow 928 64 R0
SYMATTR InstName X11
SYMBOL s_buf_slow -128 -96 R0
SYMATTR InstName X14
SYMBOL s_buf_slow 528 272 R0
SYMATTR InstName X9
SYMBOL s_current_boost 1056 -32 R0
SYMATTR InstName X12
SYMBOL s_current_boost 1056 64 R0
SYMATTR InstName X13
