Version 4
SHEET 1 880 680
WIRE 32 64 -144 64
WIRE 256 64 32 64
WIRE 304 64 256 64
WIRE 256 96 256 64
WIRE -80 112 -144 112
WIRE -16 112 -80 112
WIRE 128 144 112 144
WIRE 208 144 128 144
WIRE -64 176 -144 176
WIRE -16 176 -64 176
WIRE 608 176 336 176
WIRE 208 208 176 208
WIRE 176 240 176 208
WIRE 176 240 -144 240
WIRE 256 272 208 272
WIRE 304 272 304 64
WIRE 304 272 256 272
WIRE 384 272 304 272
WIRE 176 288 176 240
WIRE 288 304 240 304
WIRE 128 320 128 144
WIRE 176 320 128 320
WIRE 288 320 288 304
WIRE 336 320 288 320
WIRE 608 352 464 352
WIRE 256 368 256 272
WIRE 256 368 208 368
WIRE -64 384 -64 176
WIRE 176 384 -64 384
WIRE 336 384 288 384
WIRE 288 400 288 384
WIRE 288 400 240 400
WIRE -80 416 -80 112
WIRE 176 416 -80 416
FLAG -144 240 cin
IOPIN -144 240 In
FLAG -144 64 Vdd
IOPIN -144 64 In
FLAG -144 112 A
IOPIN -144 112 In
FLAG -144 176 B
IOPIN -144 176 In
FLAG 608 352 cout
IOPIN 608 352 Out
FLAG 608 176 s
IOPIN 608 176 Out
SYMBOL xor 32 144 R0
SYMATTR InstName X1
SYMBOL xor 256 176 R0
SYMATTR InstName X2
SYMBOL and 224 304 M0
SYMATTR InstName X3
SYMBOL and 224 400 M0
SYMATTR InstName X4
SYMBOL or 384 352 R0
SYMATTR InstName X5
