Version 4
SHEET 1 880 680
WIRE -176 -656 -336 -656
WIRE -176 -624 -320 -624
WIRE -1200 -608 -1200 -656
WIRE 96 -608 -16 -608
WIRE -176 -592 -304 -592
WIRE -176 -560 -288 -560
WIRE 368 -528 288 -528
WIRE -112 -512 -112 -528
WIRE 672 -512 560 -512
WIRE -736 -480 -832 -480
WIRE -336 -480 -336 -656
WIRE -336 -480 -544 -480
WIRE -208 -480 -336 -480
WIRE 368 -464 288 -464
WIRE -736 -448 -832 -448
WIRE -320 -448 -320 -624
WIRE -320 -448 -544 -448
WIRE -224 -448 -320 -448
WIRE -736 -416 -832 -416
WIRE -304 -416 -304 -592
WIRE -304 -416 -544 -416
WIRE -240 -416 -304 -416
WIRE -208 -400 -208 -480
WIRE -176 -400 -208 -400
WIRE -736 -384 -832 -384
WIRE -288 -384 -288 -560
WIRE -288 -384 -544 -384
WIRE -224 -368 -224 -448
WIRE -176 -368 -224 -368
WIRE 96 -352 -16 -352
WIRE -240 -336 -240 -416
WIRE -176 -336 -240 -336
WIRE 368 -336 288 -336
WIRE 672 -320 560 -320
WIRE -288 -304 -288 -384
WIRE -176 -304 -288 -304
WIRE 368 -272 288 -272
WIRE -112 -256 -112 -272
WIRE 480 80 384 80
WIRE -768 96 -816 96
WIRE -272 96 -368 96
WIRE 128 96 80 96
WIRE -128 192 -128 96
WIRE 80 192 80 96
FLAG -1200 -528 0
FLAG -1200 -656 Vdd
FLAG -608 -512 Vdd
FLAG -112 -688 Vdd
FLAG -112 -432 Vdd
FLAG -224 -32 Vdd
FLAG -896 32 Vdd
FLAG 464 -560 Vdd
FLAG 464 -368 Vdd
FLAG 128 64 Vdd
FLAG -720 272 Vdd
FLAG -768 96 PC[0:2]
FLAG -368 96 PC[0:2]
FLAG -656 496 Vdd
FLAG -624 432 0
FLAG -720 608 clk
FLAG -896 160 clk
FLAG -128 192 inst_sel[7:0]
FLAG 80 192 inst_sel[7:0]
FLAG 480 80 curr_inst[8:0]
FLAG -112 -256 curr_inst[3:2]
FLAG -112 -512 curr_inst[4:5]
FLAG 96 -608 A[0:7]
FLAG 96 -352 B[0:7]
FLAG 288 -336 B[0:3]
FLAG 288 -464 B[0:3]
FLAG 288 -528 A[0:3]
FLAG 288 -272 A[0:3]
FLAG -832 -448 r_in[0:7]
FLAG -832 -416 r_in[0:7]
FLAG -832 -384 r_in[0:7]
FLAG -832 -480 r_in[0:7]
FLAG -672 -512 clk
FLAG 672 -512 r_in[0:7]
FLAG 672 -320 r_in[0:4]
SYMBOL InstructionMemoryFinal8bit 256 80 R0
SYMATTR InstName X1
SYMBOL s_rom_decoder -208 96 R0
SYMATTR InstName X2
SYMBOL s_pc -880 96 R0
SYMATTR InstName X3
SYMBOL s_4reg_file -640 -448 R0
SYMATTR InstName X5
SYMBOL s_clock -720 352 R0
SYMATTR InstName X6
SYMBOL s_current_boost -720 496 R90
SYMATTR InstName X8
SYMBOL s_4bit_mult 464 -496 R0
SYMATTR InstName X7
SYMBOL s_4bit_adder 464 -304 R0
SYMATTR InstName X9
SYMBOL s_reg_file_mux -112 -608 R0
SYMATTR InstName A
SYMBOL s_reg_file_mux -112 -352 R0
SYMATTR InstName B
SYMBOL voltage -1200 -624 R0
WINDOW 123 0 0 Left 0
WINDOW 39 0 0 Left 0
SYMATTR InstName V1
SYMATTR Value 5
SYMBOL voltage -624 336 R0
SYMATTR InstName V2
SYMATTR Value 1
