Version 4
SHEET 1 880 884
WIRE 96 -496 -624 -496
WIRE 48 -448 -544 -448
WIRE 304 -416 176 -416
WIRE 48 -384 -464 -384
WIRE -624 -304 -624 -496
WIRE 80 -304 -624 -304
WIRE -544 -288 -544 -448
WIRE 48 -288 -544 -288
WIRE 288 -272 112 -272
WIRE -464 -256 -464 -384
WIRE 48 -256 -464 -256
WIRE -624 -192 -624 -304
WIRE 80 -192 -624 -192
WIRE -544 -176 -544 -288
WIRE 48 -176 -544 -176
WIRE 288 -160 112 -160
WIRE -464 -144 -464 -256
WIRE 48 -144 -464 -144
WIRE -624 -32 -624 -192
WIRE 96 -32 -624 -32
WIRE -544 16 -544 -176
WIRE 48 16 -544 16
WIRE 288 48 176 48
WIRE -464 80 -464 -144
WIRE 48 80 -464 80
WIRE -624 192 -624 -32
WIRE 96 192 -624 192
WIRE -544 240 -544 16
WIRE 48 240 -544 240
WIRE 288 272 176 272
WIRE -464 304 -464 80
WIRE 48 304 -464 304
WIRE -624 416 -624 192
WIRE 96 416 -624 416
WIRE -544 464 -544 240
WIRE 48 464 -544 464
WIRE 288 496 176 496
WIRE -464 528 -464 304
WIRE 48 528 -464 528
WIRE -624 704 -624 416
WIRE -544 704 -544 464
WIRE -464 704 -464 528
WIRE -624 784 -656 784
WIRE -544 784 -624 784
WIRE -464 784 -544 784
WIRE -656 864 -656 784
FLAG -656 864 0
FLAG 288 272 Vor
FLAG 288 496 Vnor
FLAG 288 48 Vxor
FLAG 288 -160 Vand
FLAG 288 -272 Vnand
FLAG 304 -416 Vxnor
SYMBOL voltage -624 688 R0
WINDOW 123 0 0 Left 0
WINDOW 39 0 0 Left 0
SYMATTR InstName Vdd
SYMATTR Value 5
SYMBOL voltage -544 688 R0
WINDOW 3 -10 136 Left 2
SYMATTR Value PULSE(0 5 0 10n 10n 0.5m 1m)
SYMATTR InstName A
SYMBOL voltage -464 688 R0
SYMATTR InstName B
SYMATTR Value PULSE(0 5 0 10n 10n 1m 2m)
SYMBOL s_and 96 -160 M0
SYMATTR InstName X1
SYMBOL s_nand 96 -272 M0
SYMATTR InstName X2
SYMBOL s_nor 96 496 R0
SYMATTR InstName X5
SYMBOL s_or 96 272 R0
SYMATTR InstName X6
SYMBOL s_xnor 96 -416 R0
SYMATTR InstName X8
SYMBOL s_xor 96 48 R0
SYMATTR InstName X9
TEXT -1024 592 Left 2 !.tran 8m
