Version 4
SHEET 1 880 680
WIRE 272 16 272 -48
WIRE 272 16 176 16
WIRE 112 32 16 32
WIRE 144 32 112 32
WIRE 336 48 208 48
WIRE 96 64 16 64
WIRE 144 64 96 64
WIRE 272 128 272 16
WIRE 272 128 176 128
WIRE 112 176 112 32
WIRE 128 176 112 176
WIRE 336 208 256 208
WIRE 96 240 96 64
WIRE 128 240 96 240
FLAG 272 -48 Vdd
IOPIN 272 -48 In
FLAG 16 32 a
IOPIN 16 32 In
FLAG 16 64 b
IOPIN 16 64 In
FLAG 336 48 cout
IOPIN 336 48 Out
FLAG 336 208 s
IOPIN 336 208 Out
SYMBOL s_and 192 48 M0
SYMATTR InstName X1
SYMBOL s_xor 176 208 R0
SYMATTR InstName X2
