Version 4
SHEET 1 880 680
WIRE 240 -16 112 -16
WIRE 192 0 128 0
WIRE 128 128 128 0
WIRE 128 128 0 128
WIRE 240 128 240 80
WIRE 320 128 240 128
WIRE 240 160 240 128
WIRE 128 240 128 128
WIRE 192 240 128 240
FLAG 240 256 0
FLAG 320 128 Vout
IOPIN 320 128 Out
FLAG 0 128 Vin
IOPIN 0 128 In
FLAG 112 -16 Vdd
IOPIN 112 -16 In
SYMBOL pmos 192 80 M180
SYMATTR InstName M1
SYMATTR Value CMOSP_0.5 L=5m
SYMBOL nmos 192 160 R0
SYMATTR InstName M2
SYMATTR Value CMOSN_0.5 L=2m
