Version 4
SHEET 1 1756 1344
WIRE 160 -80 -640 -80
WIRE 160 48 160 -80
WIRE 176 48 160 48
WIRE 144 80 -48 80
WIRE 352 80 240 80
WIRE 640 80 352 80
WIRE 192 144 192 -48
WIRE 192 144 176 144
WIRE 160 208 160 48
WIRE 176 208 160 208
WIRE 144 240 -16 240
WIRE 368 240 240 240
WIRE 656 240 368 240
WIRE 160 256 160 208
WIRE 576 256 160 256
WIRE 192 304 192 144
WIRE 192 304 176 304
WIRE 160 368 160 256
WIRE 176 368 160 368
WIRE 144 400 80 400
WIRE 384 400 240 400
WIRE 672 400 384 400
WIRE 192 464 192 304
WIRE 192 464 176 464
WIRE 80 544 80 400
WIRE 464 544 80 544
WIRE 576 624 576 256
WIRE 64 656 32 656
WIRE 160 656 160 368
WIRE 160 656 64 656
WIRE 224 656 160 656
WIRE 368 672 368 240
WIRE 368 672 256 672
WIRE 512 672 496 672
WIRE 640 672 640 80
WIRE 784 672 640 672
WIRE 192 688 112 688
WIRE 112 704 112 688
WIRE 464 704 464 544
WIRE 464 704 256 704
WIRE 496 704 496 672
WIRE 560 704 496 704
WIRE 576 720 576 624
WIRE -16 736 -16 240
WIRE 224 752 224 656
WIRE 384 768 384 400
WIRE 384 768 256 768
WIRE 512 768 416 768
WIRE 656 768 656 240
WIRE 656 768 640 768
WIRE 720 768 656 768
WIRE 112 784 112 768
WIRE 192 784 112 784
WIRE 416 800 416 768
WIRE 416 800 256 800
WIRE 576 816 576 720
WIRE 464 864 464 704
WIRE 512 864 464 864
WIRE 672 864 672 400
WIRE 672 864 640 864
WIRE 464 944 464 864
WIRE 656 944 464 944
WIRE 416 976 416 800
WIRE 640 976 416 976
WIRE 32 1040 32 656
WIRE 448 1040 32 1040
WIRE 720 1056 720 768
WIRE 720 1056 480 1056
WIRE 416 1072 288 1072
WIRE 480 1104 480 1088
WIRE 480 1104 416 1104
WIRE 448 1120 448 1040
WIRE 672 1136 672 864
WIRE 672 1136 480 1136
WIRE 416 1152 416 1104
WIRE 32 1168 32 1040
WIRE 160 1168 32 1168
WIRE 560 1168 560 704
WIRE 560 1168 480 1168
WIRE 32 1200 32 1168
WIRE 160 1200 160 1168
WIRE 448 1200 448 1120
WIRE 288 1216 288 1072
WIRE 288 1216 80 1216
WIRE 784 1216 784 672
WIRE 784 1216 480 1216
WIRE 416 1232 288 1232
WIRE -48 1248 -48 80
WIRE 288 1248 288 1232
WIRE 288 1248 208 1248
WIRE 640 1248 640 976
WIRE 640 1248 480 1248
WIRE 448 1280 448 1200
WIRE 784 1296 784 1216
WIRE 784 1296 480 1296
WIRE 416 1312 208 1312
WIRE 656 1328 656 944
WIRE 656 1328 480 1328
FLAG -640 -80 Vdd
IOPIN -640 -80 In
FLAG 192 -48 clk
IOPIN 192 -48 In
FLAG 384 400 P[0]
IOPIN 384 400 Out
FLAG 368 240 P[1]
IOPIN 368 240 Out
FLAG 352 80 P[2]
IOPIN 352 80 Out
FLAG 144 80 D[2]
FLAG 144 240 D[1]
FLAG 144 400 D[0]
SYMBOL s_and 208 688 R0
SYMATTR InstName X5
SYMBOL s_and 208 784 R0
SYMATTR InstName X6
SYMBOL s_or 64 736 M0
SYMATTR InstName X7
SYMBOL s_or 32 1248 M0
SYMATTR InstName X4
SYMBOL s_or 160 1280 M0
SYMATTR InstName X11
SYMBOL s_and 432 1072 R0
SYMATTR InstName X12
SYMBOL s_and 432 1152 R0
SYMATTR InstName X13
SYMBOL s_and 432 1232 R0
SYMATTR InstName X14
SYMBOL s_and 432 1312 R0
SYMATTR InstName X15
SYMBOL s_d_flip_flop 192 96 R0
SYMATTR InstName X1
SYMBOL s_d_flip_flop 192 256 R0
SYMATTR InstName X2
SYMBOL s_d_flip_flop 192 416 R0
SYMATTR InstName X3
SYMBOL s_inv_slow 576 672 M0
SYMATTR InstName X16
SYMBOL s_inv_slow 576 768 M0
SYMATTR InstName X17
SYMBOL s_inv_slow 576 864 M0
SYMATTR InstName X18
TEXT 488 -56 Left 2 !.ic V(N[0])=0 V(N[1])=0 V(N[2])=0
