Version 4
SHEET 1 1092 1388
WIRE 752 -64 528 -64
WIRE 112 -32 -80 -32
WIRE 96 112 -192 112
WIRE 544 112 96 112
WIRE 544 144 544 112
WIRE 544 144 528 144
WIRE -192 176 -192 112
WIRE 480 192 384 192
WIRE -256 224 -352 224
WIRE 32 224 -112 224
WIRE 480 224 384 224
WIRE 736 224 608 224
WIRE 480 256 384 256
WIRE -192 288 -192 176
WIRE 528 304 528 144
WIRE -256 336 -352 336
WIRE 32 336 -112 336
WIRE 480 352 384 352
WIRE 480 384 384 384
WIRE 736 384 608 384
WIRE -192 416 -192 288
WIRE 480 416 384 416
WIRE -256 464 -352 464
WIRE 32 464 -112 464
WIRE 528 464 528 304
WIRE 480 512 384 512
WIRE 480 544 384 544
WIRE 736 544 608 544
WIRE 480 576 384 576
WIRE 528 624 528 464
WIRE 480 672 384 672
WIRE 480 704 384 704
WIRE 736 704 608 704
WIRE 480 736 384 736
WIRE 528 784 528 624
WIRE 480 832 384 832
WIRE 480 864 384 864
WIRE 496 864 480 864
WIRE 736 864 608 864
WIRE 480 896 384 896
WIRE 528 928 528 784
WIRE 480 976 384 976
WIRE 480 1008 384 1008
WIRE 736 1008 608 1008
WIRE 480 1040 384 1040
WIRE 528 1072 528 928
WIRE 480 1120 384 1120
WIRE 480 1152 384 1152
WIRE 736 1152 608 1152
WIRE 480 1184 384 1184
WIRE 528 1216 528 1072
WIRE 480 1264 384 1264
WIRE 528 1264 528 1216
WIRE 480 1296 384 1296
WIRE 736 1296 608 1296
WIRE 480 1328 384 1328
FLAG -80 -32 PC_IN[0:2]
IOPIN -80 -32 In
FLAG 528 -64 rom_out[7:0]
IOPIN 528 -64 Out
FLAG -352 224 PC_IN[0]
FLAG -352 336 PC_IN[1]
FLAG -352 464 PC_IN[2]
FLAG 32 224 PC_IN[0]bar
FLAG 32 336 PC_IN[1]bar
FLAG 32 464 PC_IN[2]bar
FLAG 96 112 Vdd
IOPIN 96 112 In
FLAG 736 224 rom_out[7]
FLAG 736 384 rom_out[6]
FLAG 736 544 rom_out[5]
FLAG 736 704 rom_out[4]
FLAG 736 864 rom_out[3]
FLAG 736 1008 rom_out[2]
FLAG 736 1152 rom_out[1]
FLAG 736 1296 rom_out[0]
FLAG 384 1264 PC_IN[0]bar
FLAG 384 1296 PC_IN[1]bar
FLAG 384 1328 PC_IN[2]bar
FLAG 384 1120 PC_IN[0]
FLAG 384 1152 PC_IN[1]bar
FLAG 384 1184 PC_IN[2]bar
FLAG 384 1008 PC_IN[1]
FLAG 384 976 PC_IN[0]bar
FLAG 384 1040 PC_IN[2]bar
FLAG 384 832 PC_IN[0]
FLAG 384 864 PC_IN[1]
FLAG 384 896 PC_IN[2]bar
FLAG 384 736 PC_IN[2]
FLAG 384 704 PC_IN[1]bar
FLAG 384 672 PC_IN[0]bar
FLAG 384 576 PC_IN[2]
FLAG 384 416 PC_IN[2]
FLAG 384 256 PC_IN[2]
FLAG 384 544 PC_IN[1]bar
FLAG 384 512 PC_IN[0]
FLAG 384 352 PC_IN[0]bar
FLAG 384 192 PC_IN[0]
FLAG 384 224 PC_IN[1]
FLAG 384 384 PC_IN[1]
SYMBOL s_inv -192 224 R0
SYMATTR InstName X1
SYMBOL s_inv -192 336 R0
SYMATTR InstName X2
SYMBOL s_inv -192 464 R0
SYMATTR InstName X3
SYMBOL s_3_and 528 224 R0
SYMATTR InstName X4
SYMBOL s_3_and 528 384 R0
SYMATTR InstName X5
SYMBOL s_3_and 528 544 R0
SYMATTR InstName X6
SYMBOL s_3_and 528 704 R0
SYMATTR InstName X7
SYMBOL s_3_and 528 864 R0
SYMATTR InstName X8
SYMBOL s_3_and 528 1008 R0
SYMATTR InstName X9
SYMBOL s_3_and 528 1152 R0
SYMATTR InstName X10
SYMBOL s_3_and 528 1296 R0
SYMATTR InstName X11
