Version 4
SHEET 1 1208 1108
WIRE 176 -1328 176 -1392
WIRE 912 -1328 912 -1392
WIRE 464 -1216 112 -1216
WIRE 848 -1216 464 -1216
WIRE 176 -1072 176 -1152
WIRE 912 -1072 912 -1152
WIRE 112 -992 112 -1216
WIRE 128 -992 112 -992
WIRE 848 -992 848 -1216
WIRE 864 -992 848 -992
WIRE 112 -976 112 -992
WIRE 848 -976 848 -992
WIRE 112 -816 112 -976
WIRE 848 -816 848 -976
WIRE 48 -800 48 -1392
WIRE 176 -800 176 -928
WIRE 784 -800 784 -1392
WIRE 912 -800 912 -928
WIRE 0 -720 -48 -720
WIRE 272 -720 224 -720
WIRE 736 -720 688 -720
WIRE 1008 -720 960 -720
WIRE 112 -608 112 -816
WIRE 848 -608 848 -816
WIRE 48 -592 48 -800
WIRE 176 -592 176 -800
WIRE 784 -592 784 -800
WIRE 912 -592 912 -800
WIRE 0 -512 -48 -512
WIRE 272 -512 224 -512
WIRE 736 -512 688 -512
WIRE 1008 -512 960 -512
WIRE 112 -384 112 -608
WIRE 848 -384 848 -608
WIRE 48 -368 48 -592
WIRE 176 -368 176 -592
WIRE 784 -368 784 -592
WIRE 912 -368 912 -592
WIRE 0 -288 -48 -288
WIRE 272 -288 224 -288
WIRE 736 -288 704 -288
WIRE 752 -288 736 -288
WIRE 1008 -288 960 -288
WIRE 112 -176 112 -384
WIRE 848 -176 848 -384
WIRE 48 -160 48 -368
WIRE 176 -160 176 -368
WIRE 784 -160 784 -368
WIRE 912 -160 912 -368
WIRE 0 -80 -48 -80
WIRE 272 -80 224 -80
WIRE 736 -80 688 -80
WIRE 1008 -80 960 -80
WIRE 112 48 112 -176
WIRE 848 48 848 -176
WIRE 48 64 48 -160
WIRE 176 64 176 -160
WIRE 784 64 784 -160
WIRE 912 64 912 -160
WIRE 0 144 -48 144
WIRE 272 144 224 144
WIRE 736 144 688 144
WIRE 1008 144 960 144
WIRE 112 272 112 48
WIRE 848 272 848 48
WIRE 48 288 48 64
WIRE 176 288 176 64
WIRE 784 288 784 64
WIRE 912 288 912 64
WIRE 0 368 -48 368
WIRE 272 368 224 368
WIRE 736 368 688 368
WIRE 1008 368 960 368
WIRE 112 480 112 272
WIRE 848 480 848 272
WIRE 48 496 48 288
WIRE 176 496 176 288
WIRE 784 496 784 288
WIRE 912 496 912 288
WIRE 0 576 -48 576
WIRE 272 576 224 576
WIRE 736 576 688 576
WIRE 1008 576 960 576
WIRE 112 704 112 480
WIRE 848 704 848 480
WIRE 48 720 48 496
WIRE 176 720 176 496
WIRE 784 720 784 496
WIRE 912 720 912 496
WIRE 0 800 -48 800
WIRE 272 800 224 800
WIRE 736 800 688 800
WIRE 1008 800 960 800
FLAG 112 -976 Vdd
IOPIN 112 -976 In
FLAG 48 -1392 write_addr[0]
IOPIN 48 -1392 In
FLAG 176 -1392 read_addr[0]
IOPIN 176 -1392 Out
FLAG 848 -976 Vdd
IOPIN 848 -976 In
FLAG 912 -1392 read_addr[1]
IOPIN 912 -1392 Out
FLAG 784 -1392 write_addr[1]
IOPIN 784 -1392 In
FLAG 272 -720 read_out[0]
IOPIN 272 -720 Out
FLAG 272 -512 read_out[1]
IOPIN 272 -512 Out
FLAG 272 -288 read_out[2]
IOPIN 272 -288 Out
FLAG 272 -80 read_out[3]
IOPIN 272 -80 Out
FLAG 272 144 read_out[4]
IOPIN 272 144 Out
FLAG 272 368 read_out[5]
IOPIN 272 368 Out
FLAG 272 576 read_out[6]
IOPIN 272 576 Out
FLAG 272 800 read_out[7]
IOPIN 272 800 Out
FLAG 464 -1216 Vdd
IOPIN 464 -1216 In
FLAG 1008 800 read_out[7]
IOPIN 1008 800 Out
FLAG 1008 576 read_out[6]
IOPIN 1008 576 Out
FLAG 1008 368 read_out[5]
IOPIN 1008 368 Out
FLAG 1008 144 read_out[4]
IOPIN 1008 144 Out
FLAG 1008 -80 read_out[3]
IOPIN 1008 -80 Out
FLAG 1008 -288 read_out[2]
IOPIN 1008 -288 Out
FLAG 1008 -512 read_out[1]
IOPIN 1008 -512 Out
FLAG 1008 -720 read_out[0]
IOPIN 1008 -720 Out
FLAG -48 -720 write_in[0]
IOPIN -48 -720 In
FLAG -48 -512 write_in[1]
IOPIN -48 -512 In
FLAG -48 -288 write_in[2]
IOPIN -48 -288 In
FLAG -48 -80 write_in[3]
IOPIN -48 -80 In
FLAG -48 144 write_in[4]
IOPIN -48 144 In
FLAG -48 368 write_in[5]
IOPIN -48 368 In
FLAG -48 576 write_in[6]
IOPIN -48 576 In
FLAG -48 800 write_in[7]
IOPIN -48 800 In
FLAG 688 -720 write_in[0]
IOPIN 688 -720 In
FLAG 688 -512 write_in[1]
IOPIN 688 -512 In
FLAG 704 -288 write_in[2]
IOPIN 704 -288 In
FLAG 688 -80 write_in[3]
IOPIN 688 -80 In
FLAG 688 144 write_in[4]
IOPIN 688 144 In
FLAG 688 368 write_in[5]
IOPIN 688 368 In
FLAG 688 576 write_in[6]
IOPIN 688 576 In
FLAG 688 800 write_in[7]
IOPIN 688 800 In
SYMBOL s_sram_cell 112 144 R0
SYMATTR InstName X1
SYMBOL s_sram_cell 112 368 R0
SYMATTR InstName X2
SYMBOL s_sram_cell 112 576 R0
SYMATTR InstName X3
SYMBOL s_sram_cell 112 800 R0
SYMATTR InstName X4
SYMBOL s_sram_cell 112 -80 R0
SYMATTR InstName X6
SYMBOL s_sram_cell 112 -288 R0
SYMATTR InstName X7
SYMBOL s_sram_cell 112 -512 R0
SYMATTR InstName X8
SYMBOL s_sram_cell 112 -720 R0
SYMATTR InstName X9
SYMBOL s_inv 176 -992 R270
SYMATTR InstName X5
SYMBOL s_current_boost 176 -1216 R270
SYMATTR InstName X10
SYMBOL s_sram_cell 848 144 R0
SYMATTR InstName X11
SYMBOL s_sram_cell 848 368 R0
SYMATTR InstName X12
SYMBOL s_sram_cell 848 576 R0
SYMATTR InstName X13
SYMBOL s_sram_cell 848 800 R0
SYMATTR InstName X14
SYMBOL s_sram_cell 848 -80 R0
SYMATTR InstName X15
SYMBOL s_sram_cell 848 -288 R0
SYMATTR InstName X16
SYMBOL s_sram_cell 848 -512 R0
SYMATTR InstName X17
SYMBOL s_sram_cell 848 -720 R0
SYMATTR InstName X18
SYMBOL s_inv 912 -992 R270
SYMATTR InstName X19
SYMBOL s_current_boost 912 -1216 R270
SYMATTR InstName X20
